  
       XFOIL         Version 6.99
  
 Calculated polar for: isse                                            
  
 1 1 Reynolds number fixed          Mach number fixed         
  
 xtrf =   1.000 (top)        1.000 (bottom)  
 Mach =   0.000     Re =     1.000 e 6     Ncrit =   9.000
  
   alpha    CL        CD       CDp       CM     Top_Xtr  Bot_Xtr
  ------ -------- --------- --------- -------- -------- --------
   0.000   0.1221   0.00597   0.00135  -0.0225   0.5816   0.7822
   0.500   0.1708   0.00604   0.00138  -0.0208   0.5474   0.8193
